Version 4
SHEET 1 980 680
WIRE 416 256 304 256
WIRE 608 256 480 256
WIRE -112 320 -112 224
WIRE 192 336 160 336
WIRE 304 336 304 256
WIRE 304 336 272 336
WIRE 320 336 304 336
WIRE 416 336 400 336
WIRE 560 352 480 352
WIRE 608 352 608 256
WIRE 608 352 560 352
WIRE 736 352 608 352
WIRE 160 384 160 336
WIRE 400 400 400 336
WIRE 416 416 416 368
WIRE 560 416 560 352
WIRE 560 416 416 416
WIRE 160 512 160 464
WIRE 400 512 400 464
WIRE -112 528 -112 400
FLAG 400 512 0
FLAG 160 512 0
FLAG -112 528 V-
FLAG -112 224 V+
FLAG 448 320 V+
FLAG 448 384 V-
FLAG 736 352 Vout
IOPIN 736 352 Out
SYMBOL OpAmps/OP07 448 288 R0
SYMATTR InstName U1
SYMBOL res 416 320 R90
WINDOW 0 0 56 VBottom 2
WINDOW 3 32 56 VTop 2
SYMATTR InstName R1
SYMATTR Value 10k
SYMBOL res 288 320 R90
WINDOW 0 0 56 VBottom 2
WINDOW 3 32 56 VTop 2
SYMATTR InstName R2
SYMATTR Value 10k
SYMBOL cap 480 240 R90
WINDOW 0 0 32 VBottom 2
WINDOW 3 32 32 VTop 2
SYMATTR InstName C1
SYMATTR Value 10n
SYMBOL cap 416 464 R180
WINDOW 0 24 56 Left 2
WINDOW 3 24 8 Left 2
SYMATTR InstName C2
SYMATTR Value 10n
SYMBOL voltage 160 368 R0
SYMATTR InstName V1
SYMATTR Value SINE(1 1 50000)
SYMATTR Value2 AC 1
SYMBOL voltage -112 304 R0
SYMATTR InstName V2
SYMATTR Value 12
TEXT 632 144 Left 2 !.ac dec 100 1m 1G
